/*--------------------------------*- C++ -*----------------------------------*\
| =========                 |                                                 |
| \\      /  F ield         | OpenFOAM: The Open Source CFD Toolbox           |
|  \\    /   O peration     | Version:  v1912                                 |
|   \\  /    A nd           | Website:  www.openfoam.com                      |
|    \\/     M anipulation  |                                                 |
\*---------------------------------------------------------------------------*/
FoamFile
{
    version     2.0;
    format      ascii;
    class       featureEdgeMesh;
    location    "constant/triSurface";
    object      ff_geometry.eMesh;
}
// * * * * * * * * * * * * * * * * * * * * * * * * * * * * * * * * * * * * * //


// points:

112
(
(0.0569117 0.797694 0.017)
(0.0569117 0.797694 -0.017)
(-1.02441 0.800404 0.017)
(-1.02441 0.800404 -0.017)
(-0.834705 3.30452 0.017)
(-0.798985 3.36791 0.017)
(-0.798985 3.36791 -0.017)
(-0.834705 3.30452 -0.017)
(-0.746508 3.45156 0.017)
(-0.746508 3.45156 -0.017)
(-0.703584 3.50914 0.017)
(-0.703584 3.50914 -0.017)
(-0.660646 3.55679 0.017)
(-0.660646 3.55679 -0.017)
(-0.611302 3.60022 0.017)
(-0.611302 3.60022 -0.017)
(-0.560755 3.63448 0.017)
(-0.560755 3.63448 -0.017)
(-0.487477 3.67354 0.017)
(-0.487477 3.67354 -0.017)
(-0.413284 3.70574 0.017)
(-0.413284 3.70574 -0.017)
(-0.356204 3.72385 0.017)
(-0.356204 3.72385 -0.017)
(-0.302109 3.73374 0.017)
(-0.302109 3.73374 -0.017)
(-0.250065 3.73603 0.017)
(-0.250065 3.73603 -0.017)
(-0.198826 3.73071 0.017)
(-0.198826 3.73071 -0.017)
(-0.151784 3.71823 0.017)
(-0.151784 3.71823 -0.017)
(-0.10429 3.69792 0.017)
(-0.10429 3.69792 -0.017)
(-0.0593853 3.67119 0.017)
(-0.0593853 3.67119 -0.017)
(-0.013485 3.63546 0.017)
(-0.013485 3.63546 -0.017)
(0.0324133 3.59042 0.017)
(0.0324133 3.59042 -0.017)
(0.0791059 3.53462 0.017)
(0.0791059 3.53462 -0.017)
(0.132794 3.45899 0.017)
(0.132794 3.45899 -0.017)
(0.177836 3.36841 0.017)
(0.177836 3.36841 -0.017)
(0.228133 3.25157 0.017)
(0.228133 3.25157 -0.017)
(0.270659 3.13414 0.017)
(0.270659 3.13414 -0.017)
(0.306197 3.01291 0.017)
(0.306197 3.01291 -0.017)
(0.334832 2.88523 0.017)
(0.334832 2.88523 -0.017)
(0.353189 2.77281 0.017)
(0.353189 2.77281 -0.017)
(0.368565 2.6263 0.017)
(0.368565 2.6263 -0.017)
(0.375382 2.48509 0.017)
(0.375382 2.48509 -0.017)
(0.375164 2.33432 0.017)
(0.375164 2.33432 -0.017)
(0.367693 2.17599 0.017)
(0.367693 2.17599 -0.017)
(0.35238 2.00532 0.017)
(0.35238 2.00532 -0.017)
(0.329059 1.82557 0.017)
(0.329059 1.82557 -0.017)
(0.297735 1.63831 0.017)
(0.297735 1.63831 -0.017)
(0.25335 1.4214 0.017)
(0.25335 1.4214 -0.017)
(0.205773 1.22521 0.017)
(0.205773 1.22521 -0.017)
(0.163301 1.07782 0.017)
(0.163301 1.07782 -0.017)
(0.117716 0.946136 0.017)
(0.117716 0.946136 -0.017)
(-1.04539 0.848241 0.017)
(-1.04539 0.848241 -0.017)
(-1.08056 0.943761 0.017)
(-1.08056 0.943761 -0.017)
(-1.11068 1.05132 0.017)
(-1.11068 1.05132 -0.017)
(-1.13297 1.16085 0.017)
(-1.13297 1.16085 -0.017)
(-1.14981 1.2822 0.017)
(-1.14981 1.2822 -0.017)
(-1.16138 1.42731 0.017)
(-1.16138 1.42731 -0.017)
(-1.16548 1.57697 0.017)
(-1.16548 1.57697 -0.017)
(-1.16253 1.74052 0.017)
(-1.16253 1.74052 -0.017)
(-1.15205 1.9186 0.017)
(-1.15205 1.9186 -0.017)
(-1.13198 2.12951 0.017)
(-1.13198 2.12951 -0.017)
(-1.09907 2.39283 0.017)
(-1.09907 2.39283 -0.017)
(-1.07981 2.5254 0.017)
(-1.07981 2.5254 -0.017)
(-1.04932 2.70264 0.017)
(-1.04932 2.70264 -0.017)
(-1.0222 2.82663 0.017)
(-1.0222 2.82663 -0.017)
(-0.990225 2.94228 0.017)
(-0.990225 2.94228 -0.017)
(-0.950275 3.05735 0.017)
(-0.950275 3.05735 -0.017)
(-0.898615 3.17834 0.017)
(-0.898615 3.17834 -0.017)
)


// edges:

114
(
(4 5)
(6 7)
(5 8)
(9 6)
(8 10)
(11 9)
(10 12)
(13 11)
(12 14)
(15 13)
(14 16)
(17 15)
(16 18)
(19 17)
(18 20)
(21 19)
(20 22)
(23 21)
(22 24)
(25 23)
(24 26)
(27 25)
(26 28)
(29 27)
(28 30)
(31 29)
(30 32)
(33 31)
(32 34)
(35 33)
(34 36)
(37 35)
(36 38)
(39 37)
(38 40)
(41 39)
(40 42)
(43 41)
(42 44)
(45 43)
(44 46)
(47 45)
(46 48)
(49 47)
(48 50)
(51 49)
(50 52)
(53 51)
(52 54)
(55 53)
(54 56)
(57 55)
(56 58)
(59 57)
(58 60)
(61 59)
(60 62)
(63 61)
(62 64)
(65 63)
(64 66)
(67 65)
(66 68)
(69 67)
(68 70)
(71 69)
(70 72)
(73 71)
(72 74)
(75 73)
(74 76)
(77 75)
(76 0)
(0 1)
(1 77)
(2 3)
(0 2)
(3 1)
(2 78)
(79 3)
(78 80)
(81 79)
(80 82)
(83 81)
(82 84)
(85 83)
(84 86)
(87 85)
(86 88)
(89 87)
(88 90)
(91 89)
(90 92)
(93 91)
(92 94)
(95 93)
(94 96)
(97 95)
(96 98)
(99 97)
(98 100)
(101 99)
(100 102)
(103 101)
(102 104)
(105 103)
(104 106)
(107 105)
(106 108)
(109 107)
(108 110)
(111 109)
(110 4)
(7 111)
)

// * * * * * * * * * * * * * * * * * * * * * * * * * * * * * * * * * * * * * //


// ************************************************************************* //
