/*--------------------------------*- C++ -*----------------------------------*\
| =========                 |                                                 |
| \\      /  F ield         | OpenFOAM: The Open Source CFD Toolbox           |
|  \\    /   O peration     | Version:  v1912                                 |
|   \\  /    A nd           | Website:  www.openfoam.com                      |
|    \\/     M anipulation  |                                                 |
\*---------------------------------------------------------------------------*/
FoamFile
{
    version     2.0;
    format      ascii;
    class       featureEdgeMesh;
    location    "constant/triSurface";
    object      wing.eMesh;
}
// * * * * * * * * * * * * * * * * * * * * * * * * * * * * * * * * * * * * * //


// points:

76
(
(0.025 0.475 -1)
(0.025 -0.475 -1)
(0.025 -0.475 1)
(0.025 0.475 1)
(-0.0234923 0.483551 -1)
(-0.0234923 0.483551 1)
(-0.0191511 0.49107 -1)
(-0.0191511 0.49107 1)
(-0.0125 0.496651 -1)
(-0.0125 0.496651 1)
(-4.90012e-17 0.5 -1)
(-4.90012e-17 0.5 1)
(0.0125 0.496651 -1)
(0.0125 0.496651 1)
(0.0191511 0.49107 1)
(0.0191511 0.49107 -1)
(0.0234923 0.483551 -1)
(0.0234923 0.483551 1)
(0.0234923 -0.483551 -1)
(0.0234923 -0.483551 1)
(0.0191511 -0.49107 -1)
(0.0191511 -0.49107 1)
(0.0125 -0.496651 -1)
(0.0125 -0.496651 1)
(1.53076e-18 -0.5 1)
(1.53076e-18 -0.5 -1)
(-0.0125 -0.496651 -1)
(-0.0125 -0.496651 1)
(-0.0191511 -0.49107 -1)
(-0.0191511 -0.49107 1)
(-0.0234923 -0.483551 -1)
(-0.0234923 -0.483551 1)
(-0.025 0.475 -1)
(-0.025 -0.475 -1)
(-0.025 -0.475 1)
(-0.025 0.475 1)
(-0.0246202 0.479341 -1)
(-0.0246202 0.479341 1)
(-0.0216506 0.4875 1)
(-0.0216506 0.4875 -1)
(-0.0160697 0.494151 1)
(-0.0160697 0.494151 -1)
(-0.0085505 0.498492 1)
(-0.0085505 0.498492 -1)
(-0.0043412 0.49962 1)
(-0.0043412 0.49962 -1)
(0.0043412 0.49962 1)
(0.0085505 0.498492 1)
(0.0043412 0.49962 -1)
(0.0085505 0.498492 -1)
(0.0160697 0.494151 1)
(0.0160697 0.494151 -1)
(0.0216506 0.4875 -1)
(0.0216506 0.4875 1)
(0.0246202 0.479341 1)
(0.0246202 0.479341 -1)
(0.0246202 -0.479341 -1)
(0.0246202 -0.479341 1)
(0.0216506 -0.4875 1)
(0.0216506 -0.4875 -1)
(0.0160697 -0.494151 1)
(0.0160697 -0.494151 -1)
(0.0085505 -0.498492 1)
(0.0085505 -0.498492 -1)
(0.0043412 -0.49962 1)
(0.0043412 -0.49962 -1)
(-0.0043412 -0.49962 1)
(-0.0043412 -0.49962 -1)
(-0.0085505 -0.498492 1)
(-0.0085505 -0.498492 -1)
(-0.0160697 -0.494151 1)
(-0.0160697 -0.494151 -1)
(-0.0216506 -0.4875 1)
(-0.0216506 -0.4875 -1)
(-0.0246202 -0.479341 -1)
(-0.0246202 -0.479341 1)
)


// edges:

92
(
(5 4)
(7 6)
(9 8)
(11 10)
(13 12)
(14 15)
(17 16)
(19 18)
(21 20)
(23 22)
(24 25)
(27 26)
(29 28)
(31 30)
(1 2)
(3 0)
(0 1)
(2 3)
(32 33)
(34 35)
(36 32)
(35 37)
(37 5)
(4 36)
(5 38)
(39 4)
(38 7)
(6 39)
(7 40)
(41 6)
(40 9)
(9 42)
(8 41)
(43 8)
(42 44)
(45 43)
(44 11)
(10 45)
(11 46)
(46 47)
(48 10)
(49 48)
(47 13)
(12 49)
(13 50)
(50 14)
(51 12)
(15 51)
(52 15)
(14 53)
(16 52)
(53 17)
(17 54)
(55 16)
(0 55)
(54 3)
(56 1)
(2 57)
(57 19)
(18 56)
(19 58)
(59 18)
(58 21)
(20 59)
(21 60)
(61 20)
(60 23)
(22 61)
(23 62)
(63 22)
(62 64)
(64 24)
(65 63)
(25 65)
(24 66)
(67 25)
(66 68)
(69 67)
(68 27)
(26 69)
(27 70)
(71 26)
(70 29)
(29 72)
(28 71)
(73 28)
(30 73)
(72 31)
(74 30)
(31 75)
(75 34)
(33 74)
)

// * * * * * * * * * * * * * * * * * * * * * * * * * * * * * * * * * * * * * //


// ************************************************************************* //
