/*--------------------------------*- C++ -*----------------------------------*\
| =========                 |                                                 |
| \\      /  F ield         | OpenFOAM: The Open Source CFD Toolbox           |
|  \\    /   O peration     | Version:  v1912                                 |
|   \\  /    A nd           | Website:  www.openfoam.com                      |
|    \\/     M anipulation  |                                                 |
\*---------------------------------------------------------------------------*/
FoamFile
{
    version     2.0;
    format      ascii;
    class       extendedFeatureEdgeMesh;
    location    "constant/extendedFeatureEdgeMesh";
    object      wing.extendedFeatureEdgeMesh;
}
// * * * * * * * * * * * * * * * * * * * * * * * * * * * * * * * * * * * * * //

// points

76
(
(0.025 0.475 -1)
(0.025 -0.475 -1)
(0.025 -0.475 1)
(0.025 0.475 1)
(-0.0234923 0.483551 -1)
(-0.0234923 0.483551 1)
(-0.0191511 0.49107 -1)
(-0.0191511 0.49107 1)
(-0.0125 0.496651 -1)
(-0.0125 0.496651 1)
(-4.90012e-17 0.5 -1)
(-4.90012e-17 0.5 1)
(0.0125 0.496651 -1)
(0.0125 0.496651 1)
(0.0191511 0.49107 1)
(0.0191511 0.49107 -1)
(0.0234923 0.483551 -1)
(0.0234923 0.483551 1)
(0.0234923 -0.483551 -1)
(0.0234923 -0.483551 1)
(0.0191511 -0.49107 -1)
(0.0191511 -0.49107 1)
(0.0125 -0.496651 -1)
(0.0125 -0.496651 1)
(1.53076e-18 -0.5 1)
(1.53076e-18 -0.5 -1)
(-0.0125 -0.496651 -1)
(-0.0125 -0.496651 1)
(-0.0191511 -0.49107 -1)
(-0.0191511 -0.49107 1)
(-0.0234923 -0.483551 -1)
(-0.0234923 -0.483551 1)
(-0.025 0.475 -1)
(-0.025 -0.475 -1)
(-0.025 -0.475 1)
(-0.025 0.475 1)
(-0.0246202 0.479341 -1)
(-0.0246202 0.479341 1)
(-0.0216506 0.4875 1)
(-0.0216506 0.4875 -1)
(-0.0160697 0.494151 1)
(-0.0160697 0.494151 -1)
(-0.0085505 0.498492 1)
(-0.0085505 0.498492 -1)
(-0.0043412 0.49962 1)
(-0.0043412 0.49962 -1)
(0.0043412 0.49962 1)
(0.0085505 0.498492 1)
(0.0043412 0.49962 -1)
(0.0085505 0.498492 -1)
(0.0160697 0.494151 1)
(0.0160697 0.494151 -1)
(0.0216506 0.4875 -1)
(0.0216506 0.4875 1)
(0.0246202 0.479341 1)
(0.0246202 0.479341 -1)
(0.0246202 -0.479341 -1)
(0.0246202 -0.479341 1)
(0.0216506 -0.4875 1)
(0.0216506 -0.4875 -1)
(0.0160697 -0.494151 1)
(0.0160697 -0.494151 -1)
(0.0085505 -0.498492 1)
(0.0085505 -0.498492 -1)
(0.0043412 -0.49962 1)
(0.0043412 -0.49962 -1)
(-0.0043412 -0.49962 1)
(-0.0043412 -0.49962 -1)
(-0.0085505 -0.498492 1)
(-0.0085505 -0.498492 -1)
(-0.0160697 -0.494151 1)
(-0.0160697 -0.494151 -1)
(-0.0216506 -0.4875 1)
(-0.0216506 -0.4875 -1)
(-0.0246202 -0.479341 -1)
(-0.0246202 -0.479341 1)
)

// edges

92
(
(5 4)
(7 6)
(9 8)
(11 10)
(13 12)
(14 15)
(17 16)
(19 18)
(21 20)
(23 22)
(24 25)
(27 26)
(29 28)
(31 30)
(1 2)
(3 0)
(0 1)
(2 3)
(32 33)
(34 35)
(36 32)
(35 37)
(37 5)
(4 36)
(5 38)
(39 4)
(38 7)
(6 39)
(7 40)
(41 6)
(40 9)
(9 42)
(8 41)
(43 8)
(42 44)
(45 43)
(44 11)
(10 45)
(11 46)
(46 47)
(48 10)
(49 48)
(47 13)
(12 49)
(13 50)
(50 14)
(51 12)
(15 51)
(52 15)
(14 53)
(16 52)
(53 17)
(17 54)
(55 16)
(0 55)
(54 3)
(56 1)
(2 57)
(57 19)
(18 56)
(19 58)
(59 18)
(58 21)
(20 59)
(21 60)
(61 20)
(60 23)
(22 61)
(23 62)
(63 22)
(62 64)
(64 24)
(65 63)
(25 65)
(24 66)
(67 25)
(66 68)
(69 67)
(68 27)
(26 69)
(27 70)
(71 26)
(70 29)
(29 72)
(28 71)
(73 28)
(30 73)
(72 31)
(74 30)
(31 75)
(75 34)
(33 74)
)

// concaveStart mixedStart nonFeatureStart
0 0 32
// internalStart flatStart openStart multipleStart
14 16 16 92
// normals

76
(
(-1 0 0)
(-1 0 0)
(-1 0 0)
(-1 0 0)
(-0.996194 0.0871585 0)
(-0.996194 0.0871585 0)
(-0.965935 0.258783 0)
(-0.965935 0.258783 0)
(-0.906286 0.422664 0)
(-0.906286 0.422664 0)
(-0.819177 0.57354 0)
(-0.819177 0.57354 0)
(-0.70706 0.707154 0)
(-0.70706 0.707154 0)
(-0.573648 0.819102 0)
(-0.422491 0.906367 0)
(-0.573648 0.819102 0)
(-0.422491 0.906367 0)
(-0.258843 0.96592 0)
(-0.258843 0.96592 0)
(-0.0872021 0.996191 0)
(-0.0872021 0.996191 0)
(0.0872021 0.996191 -0)
(0.258843 0.96592 -0)
(0.0872021 0.996191 0)
(0.258843 0.96592 -0)
(0.422491 0.906367 -0)
(0.422491 0.906367 0)
(0.573648 0.819102 -0)
(0.70706 0.707154 -0)
(0.573648 0.819102 0)
(0.70706 0.707154 -0)
(0.819177 0.57354 0)
(0.819177 0.57354 -0)
(0.906286 0.422664 0)
(0.906286 0.422664 -0)
(0.965935 0.258783 -0)
(0.965935 0.258783 -0)
(0.996194 0.0871585 0)
(0.996194 0.0871585 -0)
(0.996194 -0.0871585 0)
(0.996194 -0.0871585 0)
(0.965935 -0.258783 0)
(0.965935 -0.258783 0)
(0.906286 -0.422664 0)
(0.906286 -0.422664 0)
(0.819177 -0.57354 0)
(0.819177 -0.57354 0)
(0.70706 -0.707154 0)
(0.70706 -0.707154 0)
(0.573648 -0.819102 0)
(0.573648 -0.819102 0)
(0.422491 -0.906367 0)
(0.422491 -0.906367 0)
(0.258843 -0.96592 0)
(0.0872021 -0.996191 0)
(0.258843 -0.96592 0)
(0.0872021 -0.996191 0)
(-0.0872021 -0.996191 0)
(-0.0872021 -0.996191 0)
(-0.258843 -0.96592 0)
(-0.258843 -0.96592 0)
(-0.422491 -0.906367 0)
(-0.422491 -0.906367 0)
(-0.573648 -0.819102 0)
(-0.573648 -0.819102 0)
(-0.70706 -0.707154 0)
(-0.819177 -0.57354 0)
(-0.70706 -0.707154 0)
(-0.819177 -0.57354 0)
(-0.906286 -0.422664 0)
(-0.906286 -0.422664 0)
(-0.965935 -0.258783 0)
(-0.965935 -0.258783 0)
(-0.996194 -0.0871585 0)
(-0.996194 -0.0871585 0)
)

// normal volume types

76
(
0
0
0
0
0
0
0
0
0
0
0
0
0
0
0
0
0
0
0
0
0
0
0
0
0
0
0
0
0
0
0
0
0
0
0
0
0
0
0
0
0
0
0
0
0
0
0
0
0
0
0
0
0
0
0
0
0
0
0
0
0
0
0
0
0
0
0
0
0
0
0
0
0
0
0
0
)

// normalDirections

92
(
2(1 -1)
2(1 -1)
2(1 -1)
2(1 -1)
2(1 -1)
2(1 -1)
2(1 -1)
2(1 -1)
2(1 -1)
2(1 -1)
2(1 -1)
2(1 -1)
2(1 -1)
2(1 -1)
2{1}
2{1}
1(1)
1(1)
1(1)
1(1)
1(1)
1(1)
1(1)
1(1)
1(1)
1(1)
1(1)
1(1)
1(1)
1(1)
1(1)
1(1)
1(1)
1(1)
1(1)
1(1)
1(1)
1(1)
1(1)
1(1)
1(1)
1(1)
1(1)
1(1)
1(1)
1(1)
1(1)
1(1)
1(1)
1(1)
1(1)
1(1)
1(1)
1(1)
1(1)
1(1)
1(1)
1(1)
1(1)
1(1)
1(1)
1(1)
1(1)
1(1)
1(1)
1(1)
1(1)
1(1)
1(1)
1(1)
1(1)
1(1)
1(1)
1(1)
1(1)
1(1)
1(1)
1(1)
1(1)
1(1)
1(1)
1(1)
1(1)
1(1)
1(1)
1(1)
1(1)
1(1)
1(1)
1(1)
1(1)
1(1)
)

// edgeNormals

92
(
2(6 9)
2(10 13)
2(14 15)
2(20 24)
2(26 30)
2(31 32)
2(35 36)
2(42 45)
2(46 49)
2(50 53)
2(57 59)
2(62 65)
2(66 67)
2(71 72)
2(0 40)
2(1 39)
1(0)
1(1)
1(2)
1(3)
1(4)
1(5)
1(6)
1(7)
1(8)
1(9)
1(10)
1(11)
1(12)
1(13)
1(14)
1(15)
1(16)
1(17)
1(18)
1(19)
1(20)
1(21)
1(22)
1(23)
1(24)
1(25)
1(26)
1(27)
1(28)
1(29)
1(30)
1(31)
1(32)
1(33)
1(34)
1(35)
1(36)
1(37)
1(38)
1(39)
1(40)
1(41)
1(42)
1(43)
1(44)
1(45)
1(46)
1(47)
1(48)
1(49)
1(50)
1(51)
1(52)
1(53)
1(54)
1(55)
1(56)
1(57)
1(58)
1(59)
1(60)
1(61)
1(62)
1(63)
1(64)
1(65)
1(66)
1(67)
1(68)
1(69)
1(70)
1(71)
1(72)
1(73)
1(74)
1(75)
)

// featurePointNormals

32
(
2(1 39)
2(0 40)
2(0 40)
2(1 39)
2(6 9)
2(6 9)
2(10 13)
2(10 13)
2(14 15)
2(14 15)
2(20 24)
2(20 24)
2(26 30)
2(26 30)
2(31 32)
2(31 32)
2(35 36)
2(35 36)
2(42 45)
2(42 45)
2(46 49)
2(46 49)
2(50 53)
2(50 53)
2(57 59)
2(57 59)
2(62 65)
2(62 65)
2(66 67)
2(66 67)
2(71 72)
2(71 72)
)

// featurePointEdges

32
(
3(15 16 54)
3(14 16 56)
3(14 17 57)
3(15 17 55)
3(0 23 25)
3(0 22 24)
3(1 27 29)
3(1 26 28)
3(2 32 33)
3(2 30 31)
3(3 37 40)
3(3 36 38)
3(4 43 46)
3(4 42 44)
3(5 45 49)
3(5 47 48)
3(6 50 53)
3(6 51 52)
3(7 59 61)
3(7 58 60)
3(8 63 65)
3(8 62 64)
3(9 67 69)
3(9 66 68)
3(10 71 74)
3(10 73 75)
3(11 79 81)
3(11 78 80)
3(12 84 85)
3(12 82 83)
3(13 86 88)
3(13 87 89)
)

// regionEdges

76
(
16
17
18
19
20
21
22
23
24
25
26
27
28
29
30
31
32
33
34
35
36
37
38
39
40
41
42
43
44
45
46
47
48
49
50
51
52
53
54
55
56
57
58
59
60
61
62
63
64
65
66
67
68
69
70
71
72
73
74
75
76
77
78
79
80
81
82
83
84
85
86
87
88
89
90
91
)



// ************************************************************************* //
