/*--------------------------------*- C++ -*----------------------------------*\
| =========                 |                                                 |
| \\      /  F ield         | OpenFOAM: The Open Source CFD Toolbox           |
|  \\    /   O peration     | Version:  v1912                                 |
|   \\  /    A nd           | Website:  www.openfoam.com                      |
|    \\/     M anipulation  |                                                 |
\*---------------------------------------------------------------------------*/
FoamFile
{
    version     2.0;
    format      ascii;
    class       featureEdgeMesh;
    location    "constant/triSurface";
    object      wing.eMesh;
}
// * * * * * * * * * * * * * * * * * * * * * * * * * * * * * * * * * * * * * //


// points:

76
(
(0.02500000037 0.474999994 -1)
(0.02500000037 -0.474999994 -1)
(0.02500000037 -0.474999994 1)
(0.02500000037 0.474999994 1)
(-0.02500000037 0.474999994 -1)
(-0.02500000037 -0.474999994 -1)
(-0.02500000037 -0.474999994 1)
(-0.02500000037 0.474999994 1)
(-0.02462019958 0.4793410003 -1)
(-0.02462019958 0.4793410003 1)
(-0.02349230088 0.4835509956 1)
(-0.02349230088 0.4835509956 -1)
(-0.02165059932 0.4875000119 1)
(-0.02165059932 0.4875000119 -1)
(-0.01915110089 0.4910700023 1)
(-0.01915110089 0.4910700023 -1)
(-0.01606969908 0.4941509962 1)
(-0.01606969908 0.4941509962 -1)
(-0.01250000019 0.4966509938 1)
(-0.008550499566 0.4984920025 1)
(-0.01250000019 0.4966509938 -1)
(-0.008550499566 0.4984920025 -1)
(-0.004341199994 0.4996199906 1)
(-0.004341199994 0.4996199906 -1)
(-4.900120011e-17 0.5 1)
(-4.900120011e-17 0.5 -1)
(0.004341199994 0.4996199906 1)
(0.008550499566 0.4984920025 1)
(0.004341199994 0.4996199906 -1)
(0.008550499566 0.4984920025 -1)
(0.01250000019 0.4966509938 1)
(0.01250000019 0.4966509938 -1)
(0.01606969908 0.4941509962 1)
(0.01915110089 0.4910700023 1)
(0.01606969908 0.4941509962 -1)
(0.01915110089 0.4910700023 -1)
(0.02165059932 0.4875000119 -1)
(0.02165059932 0.4875000119 1)
(0.02349230088 0.4835509956 -1)
(0.02349230088 0.4835509956 1)
(0.02462019958 0.4793410003 1)
(0.02462019958 0.4793410003 -1)
(0.02462019958 -0.4793410003 -1)
(0.02462019958 -0.4793410003 1)
(0.02349230088 -0.4835509956 1)
(0.02349230088 -0.4835509956 -1)
(0.02165059932 -0.4875000119 1)
(0.02165059932 -0.4875000119 -1)
(0.01915110089 -0.4910700023 1)
(0.01915110089 -0.4910700023 -1)
(0.01606969908 -0.4941509962 1)
(0.01606969908 -0.4941509962 -1)
(0.01250000019 -0.4966509938 1)
(0.01250000019 -0.4966509938 -1)
(0.008550499566 -0.4984920025 1)
(0.008550499566 -0.4984920025 -1)
(0.004341199994 -0.4996199906 1)
(1.530759969e-18 -0.5 1)
(0.004341199994 -0.4996199906 -1)
(1.530759969e-18 -0.5 -1)
(-0.004341199994 -0.4996199906 1)
(-0.004341199994 -0.4996199906 -1)
(-0.008550499566 -0.4984920025 1)
(-0.008550499566 -0.4984920025 -1)
(-0.01250000019 -0.4966509938 1)
(-0.01250000019 -0.4966509938 -1)
(-0.01606969908 -0.4941509962 1)
(-0.01606969908 -0.4941509962 -1)
(-0.01915110089 -0.4910700023 1)
(-0.02165059932 -0.4875000119 1)
(-0.01915110089 -0.4910700023 -1)
(-0.02165059932 -0.4875000119 -1)
(-0.02349230088 -0.4835509956 -1)
(-0.02349230088 -0.4835509956 1)
(-0.02462019958 -0.4793410003 -1)
(-0.02462019958 -0.4793410003 1)
)


// edges:

78
(
(1 2)
(3 0)
(0 1)
(2 3)
(4 5)
(6 7)
(8 4)
(7 9)
(9 10)
(11 8)
(10 12)
(13 11)
(12 14)
(15 13)
(14 16)
(17 15)
(16 18)
(18 19)
(20 17)
(21 20)
(19 22)
(23 21)
(22 24)
(25 23)
(24 26)
(26 27)
(28 25)
(29 28)
(27 30)
(31 29)
(30 32)
(32 33)
(34 31)
(35 34)
(36 35)
(33 37)
(38 36)
(37 39)
(39 40)
(41 38)
(0 41)
(40 3)
(42 1)
(2 43)
(43 44)
(45 42)
(44 46)
(47 45)
(46 48)
(49 47)
(48 50)
(51 49)
(50 52)
(53 51)
(52 54)
(55 53)
(54 56)
(56 57)
(58 55)
(59 58)
(57 60)
(61 59)
(60 62)
(63 61)
(62 64)
(65 63)
(64 66)
(67 65)
(66 68)
(68 69)
(70 67)
(71 70)
(72 71)
(69 73)
(74 72)
(73 75)
(75 6)
(5 74)
)

// * * * * * * * * * * * * * * * * * * * * * * * * * * * * * * * * * * * * * //


// ************************************************************************* //
