/*--------------------------------*- C++ -*----------------------------------*\
| =========                 |                                                 |
| \\      /  F ield         | OpenFOAM: The Open Source CFD Toolbox           |
|  \\    /   O peration     | Version:  7                                     |
|   \\  /    A nd           | Web:      www.OpenFOAM.com                      |
|    \\/     M anipulation  |                                                 |
\*---------------------------------------------------------------------------*/
FoamFile
{
    version     2.0;
    format      ascii;
    class       dictionary;
    object      blockMeshDict;
}
// * * * * * * * * * * * * * * * * * * * * * * * * * * * * * * * * * * * * * //

scale   1;

vertices
(
    (-5.0 -3.0 -6.0)
    ( 5.0 -3.0 -6.0)
    ( 5.0  6.0 -6.0)
    (-5.0  6.0 -6.0)
    (-5.0 -3.0  4.0)
    ( 5.0 -3.0  4.0)
    ( 5.0  6.0  4.0)
    (-5.0  6.0  4.0)
);

blocks
(
    hex (0 1 2 3 4 5 6 7) (20 18 20)
    simpleGrading (1 1 1)
);

edges
(
);

boundary
(
    oversetPatch
    {
        type overset;
        faces
        (
            (3 7 6 2)
            (1 5 4 0)
            (0 4 7 3)
            (2 6 5 1)
	    (4 5 6 7)
 	    (0 3 2 1)
        );
    }
);

// ************************************************************************* //
