/*--------------------------------*- C++ -*----------------------------------*\
| =========                 |                                                 |
| \\      /  F ield         | OpenFOAM: The Open Source CFD Toolbox           |
|  \\    /   O peration     | Version:  v1912                                 |
|   \\  /    A nd           | Website:  www.openfoam.com                      |
|    \\/     M anipulation  |                                                 |
\*---------------------------------------------------------------------------*/
FoamFile
{
    version     2.0;
    format      ascii;
    class       featureEdgeMesh;
    location    "constant/triSurface";
    object      hm_geometry.eMesh;
}
// * * * * * * * * * * * * * * * * * * * * * * * * * * * * * * * * * * * * * //


// points:

140
(
(0.309 2.22045e-16 0.0185)
(0.309 2.22045e-16 -0.0185)
(2.17649 -0.809399 0.0185)
(2.17649 -0.809399 -0.0185)
(0.317431 -0.391726 0.0185)
(0.307827 -0.229496 0.0185)
(0.307827 -0.229496 -0.0185)
(0.317431 -0.391726 -0.0185)
(0.306816 -0.0684764 0.0185)
(0.306816 -0.0684764 -0.0185)
(0.706033 0.0575635 0.0185)
(0.706033 0.0575635 -0.0185)
(1.06573 0.103395 0.0185)
(1.06573 0.103395 -0.0185)
(1.45918 0.145086 0.0185)
(1.45918 0.145086 -0.0185)
(1.70435 0.168966 0.0185)
(1.70435 0.168966 -0.0185)
(1.99591 0.185633 0.0185)
(1.99591 0.185633 -0.0185)
(2.27416 0.193119 0.0185)
(2.27416 0.193119 -0.0185)
(2.53326 0.191565 0.0185)
(2.53326 0.191565 -0.0185)
(2.68236 0.186294 0.0185)
(2.68236 0.186294 -0.0185)
(2.86039 0.169841 0.0185)
(2.86039 0.169841 -0.0185)
(2.99102 0.150773 0.0185)
(2.99102 0.150773 -0.0185)
(3.10088 0.127822 0.0185)
(3.10088 0.127822 -0.0185)
(3.19494 0.101034 0.0185)
(3.19494 0.101034 -0.0185)
(3.27671 0.0703534 0.0185)
(3.27671 0.0703534 -0.0185)
(3.3189 0.0510174 0.0185)
(3.3189 0.0510174 -0.0185)
(3.35927 0.0200891 0.0185)
(3.35927 0.0200891 -0.0185)
(3.37941 -0.00145161 0.0185)
(3.37941 -0.00145161 -0.0185)
(3.39342 -0.0223339 0.0185)
(3.39342 -0.0223339 -0.0185)
(3.40136 -0.0398008 0.0185)
(3.40136 -0.0398008 -0.0185)
(3.40602 -0.0566987 0.0185)
(3.40602 -0.0566987 -0.0185)
(3.40797 -0.0749889 0.0185)
(3.40797 -0.0749889 -0.0185)
(3.4068 -0.0941076 0.0185)
(3.4068 -0.0941076 -0.0185)
(3.40238 -0.11389 0.0185)
(3.40238 -0.11389 -0.0185)
(3.39381 -0.136138 0.0185)
(3.39381 -0.136138 -0.0185)
(3.37549 -0.167895 0.0185)
(3.37549 -0.167895 -0.0185)
(3.34115 -0.210141 0.0185)
(3.34115 -0.210141 -0.0185)
(3.29222 -0.256184 0.0185)
(3.29222 -0.256184 -0.0185)
(3.28518 -0.26207 0.0185)
(3.28518 -0.26207 -0.0185)
(3.20102 -0.327487 0.0185)
(3.20102 -0.327487 -0.0185)
(3.11395 -0.384555 0.0185)
(3.11395 -0.384555 -0.0185)
(3.02218 -0.435466 0.0185)
(3.02218 -0.435466 -0.0185)
(2.91826 -0.485214 0.0185)
(2.91826 -0.485214 -0.0185)
(2.75668 -0.553336 0.0185)
(2.75668 -0.553336 -0.0185)
(2.52226 -0.646424 0.0185)
(2.52226 -0.646424 -0.0185)
(2.41414 -0.691078 0.0185)
(2.41414 -0.691078 -0.0185)
(2.30502 -0.740121 0.0185)
(2.30502 -0.740121 -0.0185)
(2.21963 -0.78402 0.0185)
(2.21963 -0.78402 -0.0185)
(2.16038 -0.850076 0.0185)
(2.16038 -0.850076 -0.0185)
(2.13644 -0.890647 0.0185)
(2.13644 -0.890647 -0.0185)
(2.1012 -0.934408 0.0185)
(2.1012 -0.934408 -0.0185)
(2.05472 -0.97882 0.0185)
(2.05472 -0.97882 -0.0185)
(1.99522 -1.0242 0.0185)
(1.99522 -1.0242 -0.0185)
(1.9206 -1.07069 0.0185)
(1.9206 -1.07069 -0.0185)
(1.87297 -1.09638 0.0185)
(1.87297 -1.09638 -0.0185)
(1.75758 -1.13662 0.0185)
(1.75758 -1.13662 -0.0185)
(1.63795 -1.16944 0.0185)
(1.63795 -1.16944 -0.0185)
(1.5127 -1.19516 0.0185)
(1.5127 -1.19516 -0.0185)
(1.38188 -1.21351 0.0185)
(1.38188 -1.21351 -0.0185)
(1.24553 -1.22419 0.0185)
(1.24553 -1.22419 -0.0185)
(1.1038 -1.22691 0.0185)
(1.1038 -1.22691 -0.0185)
(1.06358 -1.22621 0.0185)
(1.06358 -1.22621 -0.0185)
(0.970031 -1.21372 0.0185)
(0.970031 -1.21372 -0.0185)
(0.880989 -1.19324 0.0185)
(0.880989 -1.19324 -0.0185)
(0.797345 -1.16521 0.0185)
(0.797345 -1.16521 -0.0185)
(0.718569 -1.12979 0.0185)
(0.718569 -1.12979 -0.0185)
(0.644183 -1.08701 0.0185)
(0.644183 -1.08701 -0.0185)
(0.577078 -1.0393 0.0185)
(0.577078 -1.0393 -0.0185)
(0.566149 -1.03061 0.0185)
(0.566149 -1.03061 -0.0185)
(0.520484 -0.983916 0.0185)
(0.520484 -0.983916 -0.0185)
(0.478606 -0.929501 0.0185)
(0.478606 -0.929501 -0.0185)
(0.439237 -0.865296 0.0185)
(0.439237 -0.865296 -0.0185)
(0.403379 -0.791507 0.0185)
(0.403379 -0.791507 -0.0185)
(0.372181 -0.708844 0.0185)
(0.372181 -0.708844 -0.0185)
(0.346909 -0.618741 0.0185)
(0.346909 -0.618741 -0.0185)
(0.328795 -0.523417 0.0185)
(0.328795 -0.523417 -0.0185)
(0.318853 -0.425787 0.0185)
(0.318853 -0.425787 -0.0185)
)


// edges:

142
(
(4 5)
(6 7)
(5 8)
(9 6)
(8 0)
(0 1)
(1 9)
(0 10)
(11 1)
(10 12)
(13 11)
(12 14)
(15 13)
(14 16)
(17 15)
(16 18)
(19 17)
(18 20)
(21 19)
(20 22)
(23 21)
(22 24)
(25 23)
(24 26)
(27 25)
(26 28)
(29 27)
(28 30)
(31 29)
(30 32)
(33 31)
(32 34)
(35 33)
(34 36)
(37 35)
(36 38)
(39 37)
(38 40)
(41 39)
(40 42)
(43 41)
(42 44)
(45 43)
(44 46)
(47 45)
(46 48)
(49 47)
(48 50)
(51 49)
(50 52)
(53 51)
(52 54)
(55 53)
(54 56)
(57 55)
(56 58)
(59 57)
(58 60)
(61 59)
(60 62)
(63 61)
(62 64)
(65 63)
(64 66)
(67 65)
(66 68)
(69 67)
(68 70)
(71 69)
(70 72)
(73 71)
(72 74)
(75 73)
(74 76)
(77 75)
(76 78)
(79 77)
(78 80)
(81 79)
(80 2)
(3 81)
(2 82)
(83 3)
(82 84)
(85 83)
(84 86)
(87 85)
(86 88)
(89 87)
(88 90)
(91 89)
(90 92)
(93 91)
(92 94)
(95 93)
(94 96)
(97 95)
(96 98)
(99 97)
(98 100)
(101 99)
(100 102)
(103 101)
(102 104)
(105 103)
(104 106)
(107 105)
(106 108)
(109 107)
(108 110)
(111 109)
(110 112)
(113 111)
(112 114)
(115 113)
(114 116)
(117 115)
(116 118)
(119 117)
(118 120)
(121 119)
(120 122)
(123 121)
(122 124)
(125 123)
(124 126)
(127 125)
(126 128)
(129 127)
(128 130)
(131 129)
(130 132)
(133 131)
(132 134)
(135 133)
(134 136)
(137 135)
(136 138)
(139 137)
(138 4)
(7 139)
(2 3)
)

// * * * * * * * * * * * * * * * * * * * * * * * * * * * * * * * * * * * * * //


// ************************************************************************* //
