/*--------------------------------*- C++ -*----------------------------------*\
| =========                 |                                                 |
| \\      /  F ield         | OpenFOAM: The Open Source CFD Toolbox           |
|  \\    /   O peration     | Version:  v1912                                 |
|   \\  /    A nd           | Website:  www.openfoam.com                      |
|    \\/     M anipulation  |                                                 |
\*---------------------------------------------------------------------------*/
FoamFile
{
    version     2.0;
    format      ascii;
    class       extendedFeatureEdgeMesh;
    location    "constant/extendedFeatureEdgeMesh";
    object      hm_geometry.extendedFeatureEdgeMesh;
}
// * * * * * * * * * * * * * * * * * * * * * * * * * * * * * * * * * * * * * //

// points

140
(
(0.309 2.22045e-16 0.0185)
(0.309 2.22045e-16 -0.0185)
(2.17649 -0.809399 0.0185)
(2.17649 -0.809399 -0.0185)
(0.317431 -0.391726 0.0185)
(0.307827 -0.229496 0.0185)
(0.307827 -0.229496 -0.0185)
(0.317431 -0.391726 -0.0185)
(0.306816 -0.0684764 0.0185)
(0.306816 -0.0684764 -0.0185)
(0.706033 0.0575635 0.0185)
(0.706033 0.0575635 -0.0185)
(1.06573 0.103395 0.0185)
(1.06573 0.103395 -0.0185)
(1.45918 0.145086 0.0185)
(1.45918 0.145086 -0.0185)
(1.70435 0.168966 0.0185)
(1.70435 0.168966 -0.0185)
(1.99591 0.185633 0.0185)
(1.99591 0.185633 -0.0185)
(2.27416 0.193119 0.0185)
(2.27416 0.193119 -0.0185)
(2.53326 0.191565 0.0185)
(2.53326 0.191565 -0.0185)
(2.68236 0.186294 0.0185)
(2.68236 0.186294 -0.0185)
(2.86039 0.169841 0.0185)
(2.86039 0.169841 -0.0185)
(2.99102 0.150773 0.0185)
(2.99102 0.150773 -0.0185)
(3.10088 0.127822 0.0185)
(3.10088 0.127822 -0.0185)
(3.19494 0.101034 0.0185)
(3.19494 0.101034 -0.0185)
(3.27671 0.0703534 0.0185)
(3.27671 0.0703534 -0.0185)
(3.3189 0.0510174 0.0185)
(3.3189 0.0510174 -0.0185)
(3.35927 0.0200891 0.0185)
(3.35927 0.0200891 -0.0185)
(3.37941 -0.00145161 0.0185)
(3.37941 -0.00145161 -0.0185)
(3.39342 -0.0223339 0.0185)
(3.39342 -0.0223339 -0.0185)
(3.40136 -0.0398008 0.0185)
(3.40136 -0.0398008 -0.0185)
(3.40602 -0.0566987 0.0185)
(3.40602 -0.0566987 -0.0185)
(3.40797 -0.0749889 0.0185)
(3.40797 -0.0749889 -0.0185)
(3.4068 -0.0941076 0.0185)
(3.4068 -0.0941076 -0.0185)
(3.40238 -0.11389 0.0185)
(3.40238 -0.11389 -0.0185)
(3.39381 -0.136138 0.0185)
(3.39381 -0.136138 -0.0185)
(3.37549 -0.167895 0.0185)
(3.37549 -0.167895 -0.0185)
(3.34115 -0.210141 0.0185)
(3.34115 -0.210141 -0.0185)
(3.29222 -0.256184 0.0185)
(3.29222 -0.256184 -0.0185)
(3.28518 -0.26207 0.0185)
(3.28518 -0.26207 -0.0185)
(3.20102 -0.327487 0.0185)
(3.20102 -0.327487 -0.0185)
(3.11395 -0.384555 0.0185)
(3.11395 -0.384555 -0.0185)
(3.02218 -0.435466 0.0185)
(3.02218 -0.435466 -0.0185)
(2.91826 -0.485214 0.0185)
(2.91826 -0.485214 -0.0185)
(2.75668 -0.553336 0.0185)
(2.75668 -0.553336 -0.0185)
(2.52226 -0.646424 0.0185)
(2.52226 -0.646424 -0.0185)
(2.41414 -0.691078 0.0185)
(2.41414 -0.691078 -0.0185)
(2.30502 -0.740121 0.0185)
(2.30502 -0.740121 -0.0185)
(2.21963 -0.78402 0.0185)
(2.21963 -0.78402 -0.0185)
(2.16038 -0.850076 0.0185)
(2.16038 -0.850076 -0.0185)
(2.13644 -0.890647 0.0185)
(2.13644 -0.890647 -0.0185)
(2.1012 -0.934408 0.0185)
(2.1012 -0.934408 -0.0185)
(2.05472 -0.97882 0.0185)
(2.05472 -0.97882 -0.0185)
(1.99522 -1.0242 0.0185)
(1.99522 -1.0242 -0.0185)
(1.9206 -1.07069 0.0185)
(1.9206 -1.07069 -0.0185)
(1.87297 -1.09638 0.0185)
(1.87297 -1.09638 -0.0185)
(1.75758 -1.13662 0.0185)
(1.75758 -1.13662 -0.0185)
(1.63795 -1.16944 0.0185)
(1.63795 -1.16944 -0.0185)
(1.5127 -1.19516 0.0185)
(1.5127 -1.19516 -0.0185)
(1.38188 -1.21351 0.0185)
(1.38188 -1.21351 -0.0185)
(1.24553 -1.22419 0.0185)
(1.24553 -1.22419 -0.0185)
(1.1038 -1.22691 0.0185)
(1.1038 -1.22691 -0.0185)
(1.06358 -1.22621 0.0185)
(1.06358 -1.22621 -0.0185)
(0.970031 -1.21372 0.0185)
(0.970031 -1.21372 -0.0185)
(0.880989 -1.19324 0.0185)
(0.880989 -1.19324 -0.0185)
(0.797345 -1.16521 0.0185)
(0.797345 -1.16521 -0.0185)
(0.718569 -1.12979 0.0185)
(0.718569 -1.12979 -0.0185)
(0.644183 -1.08701 0.0185)
(0.644183 -1.08701 -0.0185)
(0.577078 -1.0393 0.0185)
(0.577078 -1.0393 -0.0185)
(0.566149 -1.03061 0.0185)
(0.566149 -1.03061 -0.0185)
(0.520484 -0.983916 0.0185)
(0.520484 -0.983916 -0.0185)
(0.478606 -0.929501 0.0185)
(0.478606 -0.929501 -0.0185)
(0.439237 -0.865296 0.0185)
(0.439237 -0.865296 -0.0185)
(0.403379 -0.791507 0.0185)
(0.403379 -0.791507 -0.0185)
(0.372181 -0.708844 0.0185)
(0.372181 -0.708844 -0.0185)
(0.346909 -0.618741 0.0185)
(0.346909 -0.618741 -0.0185)
(0.328795 -0.523417 0.0185)
(0.328795 -0.523417 -0.0185)
(0.318853 -0.425787 0.0185)
(0.318853 -0.425787 -0.0185)
)

// edges

142
(
(4 5)
(6 7)
(5 8)
(9 6)
(8 0)
(0 1)
(1 9)
(0 10)
(11 1)
(10 12)
(13 11)
(12 14)
(15 13)
(14 16)
(17 15)
(16 18)
(19 17)
(18 20)
(21 19)
(20 22)
(23 21)
(22 24)
(25 23)
(24 26)
(27 25)
(26 28)
(29 27)
(28 30)
(31 29)
(30 32)
(33 31)
(32 34)
(35 33)
(34 36)
(37 35)
(36 38)
(39 37)
(38 40)
(41 39)
(40 42)
(43 41)
(42 44)
(45 43)
(44 46)
(47 45)
(46 48)
(49 47)
(48 50)
(51 49)
(50 52)
(53 51)
(52 54)
(55 53)
(54 56)
(57 55)
(56 58)
(59 57)
(58 60)
(61 59)
(60 62)
(63 61)
(62 64)
(65 63)
(64 66)
(67 65)
(66 68)
(69 67)
(68 70)
(71 69)
(70 72)
(73 71)
(72 74)
(75 73)
(74 76)
(77 75)
(76 78)
(79 77)
(78 80)
(81 79)
(80 2)
(3 81)
(2 82)
(83 3)
(82 84)
(85 83)
(84 86)
(87 85)
(86 88)
(89 87)
(88 90)
(91 89)
(90 92)
(93 91)
(92 94)
(95 93)
(94 96)
(97 95)
(96 98)
(99 97)
(98 100)
(101 99)
(100 102)
(103 101)
(102 104)
(105 103)
(104 106)
(107 105)
(106 108)
(109 107)
(108 110)
(111 109)
(110 112)
(113 111)
(112 114)
(115 113)
(114 116)
(117 115)
(116 118)
(119 117)
(118 120)
(121 119)
(120 122)
(123 121)
(122 124)
(125 123)
(124 126)
(127 125)
(126 128)
(129 127)
(128 130)
(131 129)
(130 132)
(133 131)
(132 134)
(135 133)
(134 136)
(137 135)
(136 138)
(139 137)
(138 4)
(7 139)
(2 3)
)

// concaveStart mixedStart nonFeatureStart
2 2 4
// internalStart flatStart openStart multipleStart
141 142 142 142
// normals

274
(
(-0.998252 -0.0590959 0)
(0 0 1)
(-0.998252 -0.0590959 0)
(0 0 -1)
(-0.99998 -0.00627925 0)
(-0 0 1)
(-0.99998 -0.00627925 0)
(0 0 -1)
(-0.999492 0.0318763 0)
(0 0 1)
(-0.999492 0.0318763 0)
(-0.143484 0.989653 0)
(0 0 -1)
(-0.143484 0.989653 0)
(-0.126397 0.99198 0)
(-0 0 1)
(-0.126397 0.99198 0)
(0 0 -1)
(-0.105371 0.994433 0)
(0 0 1)
(-0.105371 0.994433 0)
(0 0 -1)
(-0.096945 0.99529 0)
(0 0 1)
(-0.096945 0.99529 0)
(0 0 -1)
(-0.0570727 0.99837 0)
(0 0 1)
(-0.0570727 0.99837 0)
(0 0 -1)
(-0.0268904 0.999638 0)
(-0 0 1)
(-0.0268904 0.999638 0)
(0 0 -1)
(0.00599425 0.999982 -0)
(0 0 1)
(0.00599425 0.999982 0)
(0 0 -1)
(0.0353352 0.999376 -0)
(0 0 1)
(0.0353352 0.999376 0)
(0 0 -1)
(0.0920186 0.995757 -0)
(0 0 1)
(0.0920186 0.995757 0)
(0 0 -1)
(0.144448 0.989512 -0)
(0 0 1)
(0.144448 0.989512 0)
(-0 -0 -1)
(0.204492 0.978868 -0)
(0 0 1)
(0.204492 0.978868 0)
(-0 -0 -1)
(0.273895 0.96176 -0)
(0 0 1)
(0.273895 0.96176 0)
(-0 -0 -1)
(0.351321 0.936255 -0)
(0 0 1)
(0.351321 0.936255 0)
(-0 -0 -1)
(0.416571 0.909103 -0)
(0 0 1)
(0.416571 0.909103 0)
(0 0 -1)
(0.608186 0.793794 -0)
(0.608186 0.793794 0)
(0.73051 0.682902 -0)
(0 0 1)
(0.73051 0.682902 0)
(0 0 -1)
(0.83035 0.557243 -0)
(0 0 1)
(0.83035 0.557243 0)
(-0 -0 -1)
(0.910374 0.413787 -0)
(0 0 1)
(0.910374 0.413787 0)
(0 0 -1)
(0.963985 0.265958 -0)
(0 0 1)
(0.963985 0.265958 0)
(0 0 -1)
(0.994399 0.105694 -0)
(0 0 1)
(0.994399 0.105694 0)
(-0 -0 -1)
(0.998126 -0.06119 0)
(0 -0 1)
(0.998126 -0.06119 0)
(0 0 -1)
(0.975989 -0.21782 0)
(0 0 1)
(0.975989 -0.21782 0)
(0 0 -1)
(0.933119 -0.359568 0)
(0 0 1)
(0.933119 -0.359568 0)
(0 0 -1)
(0.866272 -0.499572 0)
(0 -0 1)
(0.866272 -0.499572 0)
(-0 0 -1)
(0.775944 -0.630802 0)
(0 0 1)
(0.775944 -0.630802 0)
(0 0 -1)
(0.685327 -0.728235 0)
(0 0 1)
(0.685327 -0.728235 0)
(0 0 -1)
(0.641216 -0.76736 0)
(0 0 1)
(0.641216 -0.76736 0)
(0 0 -1)
(0.613707 -0.789534 0)
(0 0 1)
(0.613707 -0.789534 0)
(0 0 -1)
(0.548171 -0.836366 0)
(0 0 1)
(0.548171 -0.836366 0)
(0 0 -1)
(0.485129 -0.874443 0)
(0 -0 1)
(0.485129 -0.874443 0)
(0 0 -1)
(0.43177 -0.901984 0)
(0 0 1)
(0.43177 -0.901984 0)
(0 0 -1)
(0.388496 -0.92145 0)
(0 0 1)
(0.388496 -0.92145 0)
(0 0 -1)
(0.36906 -0.929406 0)
(0 0 1)
(0.36906 -0.929406 0)
(0 0 -1)
(0.381739 -0.92427 0)
(0 0 1)
(0.381739 -0.92427 0)
(0 0 -1)
(0.409926 -0.912119 0)
(0 0 1)
(0.409926 -0.912119 0)
(0 0 -1)
(0.457218 -0.889355 0)
(0 -0 1)
(0.457218 -0.889355 0)
(0 0 -1)
(0.507084 -0.861897 0)
(0 0 1)
(0.507084 -0.861897 0)
(0 0 -1)
(0.929761 -0.368164 0)
(0 0 1)
(0.929761 -0.368164 0)
(0 0 -1)
(0.861181 -0.508298 0)
(0 0 1)
(0.861181 -0.508298 0)
(0 0 -1)
(0.778852 -0.627208 0)
(0 0 1)
(0.778852 -0.627208 0)
(-0 0 -1)
(0.690903 -0.722947 0)
(0 0 1)
(0.690903 -0.722947 0)
(0 0 -1)
(0.60642 -0.795144 0)
(0 -0 1)
(0.60642 -0.795144 0)
(0 0 -1)
(0.528766 -0.848768 0)
(0 0 1)
(0.528766 -0.848768 0)
(-0 0 -1)
(0.474782 -0.880103 0)
(0 0 1)
(0.474782 -0.880103 0)
(-0 0 -1)
(0.329214 -0.944255 0)
(0 -0 1)
(0.329214 -0.944255 0)
(0 0 -1)
(0.264625 -0.964351 0)
(0 0 1)
(0.264625 -0.964351 0)
(0 0 -1)
(0.201151 -0.97956 0)
(0 0 1)
(0.201151 -0.97956 0)
(-0 0 -1)
(0.138869 -0.990311 0)
(0 -0 1)
(0.138869 -0.990311 0)
(0 0 -1)
(0.0781223 -0.996944 0)
(0 0 1)
(0.0781223 -0.996944 0)
(0 0 -1)
(0.0191813 -0.999816 0)
(0 0 1)
(0.0191813 -0.999816 0)
(-0 0 -1)
(-0.0173542 -0.999849 0)
(0 0 1)
(-0.0173542 -0.999849 0)
(0 0 -1)
(-0.132363 -0.991201 0)
(-0 -0 1)
(-0.132363 -0.991201 0)
(0 0 -1)
(-0.224183 -0.974547 0)
(0 0 1)
(-0.224183 -0.974547 0)
(0 0 -1)
(-0.317734 -0.94818 0)
(0 0 1)
(-0.317734 -0.94818 0)
(0 0 -1)
(-0.410006 -0.912083 0)
(-0 -0 1)
(-0.410006 -0.912083 0)
(0 0 -1)
(-0.498586 -0.86684 0)
(0 0 1)
(-0.498586 -0.86684 0)
(0 0 -1)
(-0.57946 -0.815001 0)
(0 0 1)
(-0.57946 -0.815001 0)
(0 0 -1)
(-0.622396 -0.782703 0)
(0 0 1)
(-0.622396 -0.782703 0)
(0 0 -1)
(-0.714926 -0.699201 0)
(-0.714926 -0.699201 0)
(-0.792477 -0.609901 0)
(0 0 1)
(-0.792477 -0.609901 0)
(0 0 -1)
(-0.852496 -0.522733 0)
(0 0 1)
(-0.852496 -0.522733 0)
(0 0 -1)
(-0.899424 -0.437078 0)
(0 0 1)
(-0.899424 -0.437078 0)
(0 0 -1)
(-0.935587 -0.353096 0)
(0 0 1)
(-0.935587 -0.353096 0)
(0 0 -1)
(-0.962843 -0.27006 0)
(0 0 1)
(-0.962843 -0.27006 0)
(0 0 -1)
(-0.982421 -0.186681 0)
(-0 -0 1)
(-0.982421 -0.186681 0)
(0 0 -1)
(-0.994855 -0.101312 0)
(-0 -0 1)
(-0.994855 -0.101312 0)
(0 0 -1)
(-0.99913 -0.041715 0)
(-0 -0 1)
(-0.99913 -0.041715 0)
(0 0 -1)
)

// normal volume types

274
(
0
0
0
0
0
0
0
0
0
0
0
0
0
0
0
0
0
0
0
0
0
0
0
0
0
0
0
0
0
0
0
0
0
0
0
0
0
0
0
0
0
0
0
0
0
0
0
0
0
0
0
0
0
0
0
0
0
0
0
0
0
0
0
0
0
0
0
0
0
0
0
0
0
0
0
0
0
0
0
0
0
0
0
0
0
0
0
0
0
0
0
0
0
0
0
0
0
0
0
0
0
0
0
0
0
0
0
0
0
0
0
0
0
0
0
0
0
0
0
0
0
0
0
0
0
0
0
0
0
0
0
0
0
0
0
0
0
0
0
0
0
0
0
0
0
0
0
0
0
0
0
0
0
0
0
0
0
0
0
0
0
0
0
0
0
0
0
0
0
0
0
0
0
0
0
0
0
0
0
0
0
0
0
0
0
0
0
0
0
0
0
0
0
0
0
0
0
0
0
0
0
0
0
0
0
0
0
0
0
0
0
0
0
0
0
0
0
0
0
0
0
0
0
0
0
0
0
0
0
0
0
0
0
0
0
0
0
0
0
0
0
0
0
0
0
0
0
0
0
0
0
0
0
0
0
0
0
0
0
0
0
0
0
0
0
0
0
0
0
0
0
0
0
0
)

// normalDirections

142
(
2(1 -1)
2(1 -1)
2(1 -1)
2(1 -1)
2(1 -1)
2(1 -1)
2(1 -1)
2(1 -1)
2(1 -1)
2(1 -1)
2(1 -1)
2(1 -1)
2(1 -1)
2(1 -1)
2(1 -1)
2(1 -1)
2(1 -1)
2(1 -1)
2(1 -1)
2(1 -1)
2(1 -1)
2(1 -1)
2(1 -1)
2(1 -1)
2(1 -1)
2(1 -1)
2(1 -1)
2(1 -1)
2(1 -1)
2(1 -1)
2(1 -1)
2(1 -1)
2(1 -1)
2(1 -1)
2(1 -1)
2(1 -1)
2(1 -1)
2(1 -1)
2(1 -1)
2(1 -1)
2(1 -1)
2(1 -1)
2(1 -1)
2(1 -1)
2(1 -1)
2(1 -1)
2(1 -1)
2(1 -1)
2(1 -1)
2(1 -1)
2(1 -1)
2(1 -1)
2(1 -1)
2(1 -1)
2(1 -1)
2(1 -1)
2(1 -1)
2(1 -1)
2(1 -1)
2(1 -1)
2(1 -1)
2(1 -1)
2(1 -1)
2(1 -1)
2(1 -1)
2(1 -1)
2(1 -1)
2(1 -1)
2(1 -1)
2(1 -1)
2(1 -1)
2(1 -1)
2(1 -1)
2(1 -1)
2(1 -1)
2(1 -1)
2(1 -1)
2(1 -1)
2(1 -1)
2(1 -1)
2(1 -1)
2(1 -1)
2(1 -1)
2(1 -1)
2(1 -1)
2(1 -1)
2(1 -1)
2(1 -1)
2(1 -1)
2(1 -1)
2(1 -1)
2(1 -1)
2(1 -1)
2(1 -1)
2(1 -1)
2(1 -1)
2(1 -1)
2(1 -1)
2(1 -1)
2(1 -1)
2(1 -1)
2(1 -1)
2(1 -1)
2(1 -1)
2(1 -1)
2(1 -1)
2(1 -1)
2(1 -1)
2(1 -1)
2(1 -1)
2(1 -1)
2(1 -1)
2(1 -1)
2(1 -1)
2(1 -1)
2(1 -1)
2(1 -1)
2(1 -1)
2(1 -1)
2(1 -1)
2(1 -1)
2(1 -1)
2(1 -1)
2(1 -1)
2(1 -1)
2(1 -1)
2(1 -1)
2(1 -1)
2(1 -1)
2(1 -1)
2(1 -1)
2(1 -1)
2(1 -1)
2(1 -1)
2(1 -1)
2(1 -1)
2(1 -1)
2(1 -1)
2(1 -1)
2(1 -1)
2(1 -1)
2(1 -1)
)

// edgeNormals

142
(
2(0 1)
2(2 3)
2(4 5)
2(6 7)
2(8 9)
2(10 11)
2(10 12)
2(11 9)
2(13 12)
2(14 15)
2(16 17)
2(18 19)
2(20 21)
2(22 23)
2(24 25)
2(26 27)
2(28 29)
2(30 31)
2(32 33)
2(34 35)
2(36 37)
2(38 39)
2(40 41)
2(42 43)
2(44 45)
2(46 47)
2(48 49)
2(50 51)
2(52 53)
2(54 55)
2(56 57)
2(58 59)
2(60 61)
2(62 63)
2(64 65)
2(66 63)
2(67 65)
2(68 69)
2(70 71)
2(72 73)
2(74 75)
2(76 77)
2(78 79)
2(80 81)
2(82 83)
2(84 85)
2(86 87)
2(88 89)
2(90 91)
2(92 93)
2(94 95)
2(96 97)
2(98 99)
2(100 101)
2(102 103)
2(104 105)
2(106 107)
2(108 109)
2(110 111)
2(112 113)
2(114 115)
2(116 117)
2(118 119)
2(120 121)
2(122 123)
2(124 125)
2(126 127)
2(128 129)
2(130 131)
2(132 133)
2(134 135)
2(136 137)
2(138 139)
2(140 141)
2(142 143)
2(144 145)
2(146 147)
2(148 149)
2(150 151)
2(152 153)
2(154 155)
2(156 157)
2(158 159)
2(160 161)
2(162 163)
2(164 165)
2(166 167)
2(168 169)
2(170 171)
2(172 173)
2(174 175)
2(176 177)
2(178 179)
2(180 181)
2(182 183)
2(184 185)
2(186 187)
2(188 189)
2(190 191)
2(192 193)
2(194 195)
2(196 197)
2(198 199)
2(200 201)
2(202 203)
2(204 205)
2(206 207)
2(208 209)
2(210 211)
2(212 213)
2(214 215)
2(216 217)
2(218 219)
2(220 221)
2(222 223)
2(224 225)
2(226 227)
2(228 229)
2(230 231)
2(232 233)
2(234 235)
2(236 237)
2(238 239)
2(240 237)
2(241 239)
2(242 243)
2(244 245)
2(246 247)
2(248 249)
2(250 251)
2(252 253)
2(254 255)
2(256 257)
2(258 259)
2(260 261)
2(262 263)
2(264 265)
2(266 267)
2(268 269)
2(270 271)
2(272 273)
2(154 156)
)

// featurePointNormals

4
(
3(8 9 11)
3(10 11 12)
3(152 153 156)
3(154 155 158)
)

// featurePointEdges

4
(
3(5 7 4)
3(5 8 6)
3(141 81 79)
3(141 82 80)
)

// regionEdges
0()


// ************************************************************************* //
