/*--------------------------------*- C++ -*----------------------------------*\
| =========                 |                                                 |
| \\      /  F ield         | OpenFOAM: The Open Source CFD Toolbox           |
|  \\    /   O peration     | Version:  v1912                                 |
|   \\  /    A nd           | Website:  www.openfoam.com                      |
|    \\/     M anipulation  |                                                 |
\*---------------------------------------------------------------------------*/
FoamFile
{
    version     2.0;
    format      ascii;
    class       extendedFeatureEdgeMesh;
    location    "constant/extendedFeatureEdgeMesh";
    object      wing.extendedFeatureEdgeMesh;
}
// * * * * * * * * * * * * * * * * * * * * * * * * * * * * * * * * * * * * * //

// points
8((0.4 0.16 0.05) (2.4 0.16 0.05) (0.4 0.16 -0.05) (2.4 0.16 -0.05) (0.4 -0.84 0.05) (2.4 -0.84 0.05) (2.4 -0.84 -0.05) (0.4 -0.84 -0.05))
// edges

12
(
(0 1)
(2 0)
(3 2)
(1 3)
(4 5)
(0 4)
(5 1)
(7 6)
(6 5)
(4 7)
(7 2)
(3 6)
)

// concaveStart mixedStart nonFeatureStart
8 8 8
// internalStart flatStart openStart multipleStart
12 12 12 12
// normals

12
(
(-0 1 0)
(-0 0 1)
(-1 0 0)
(0 1 0)
(0 0 -1)
(1 0 0)
(0 0 1)
(0 -1 0)
(1 -0 0)
(0 -1 0)
(0 0 -1)
(-1 0 0)
)

// normal volume types

12
(
0
0
0
0
0
0
0
0
0
0
0
0
)

// normalDirections

12
(
2(1 -1)
2(1 -1)
2(1 -1)
2(1 -1)
2(1 -1)
2(1 -1)
2(1 -1)
2(1 -1)
2(1 -1)
2(1 -1)
2(1 -1)
2(1 -1)
)

// edgeNormals

12
(
2(0 1)
2(0 2)
2(3 4)
2(3 5)
2(6 7)
2(6 2)
2(1 8)
2(9 10)
2(9 8)
2(7 11)
2(4 11)
2(10 5)
)

// featurePointNormals

8
(
3(0 1 2)
3(0 1 5)
3(0 2 4)
3(3 4 5)
3(6 7 2)
3(6 7 8)
3(9 10 8)
3(9 10 11)
)

// featurePointEdges

8
(
3(0 5 1)
3(3 6 0)
3(2 10 1)
3(2 11 3)
3(4 9 5)
3(6 8 4)
3(7 11 8)
3(9 10 7)
)

// regionEdges
0()


// ************************************************************************* //
