/*--------------------------------*- C++ -*----------------------------------*\
| =========                 |                                                 |
| \\      /  F ield         | OpenFOAM: The Open Source CFD Toolbox           |
|  \\    /   O peration     | Version:  v1912                                 |
|   \\  /    A nd           | Website:  www.openfoam.com                      |
|    \\/     M anipulation  |                                                 |
\*---------------------------------------------------------------------------*/
FoamFile
{
    version     2.0;
    format      ascii;
    class       extendedFeatureEdgeMesh;
    location    "constant/extendedFeatureEdgeMesh";
    object      wing.extendedFeatureEdgeMesh;
}
// * * * * * * * * * * * * * * * * * * * * * * * * * * * * * * * * * * * * * //

// points

76
(
(0.02500000037 0.474999994 -1)
(0.02500000037 -0.474999994 -1)
(0.02500000037 -0.474999994 1)
(0.02500000037 0.474999994 1)
(-0.02500000037 0.474999994 -1)
(-0.02500000037 -0.474999994 -1)
(-0.02500000037 -0.474999994 1)
(-0.02500000037 0.474999994 1)
(-0.02462019958 0.4793410003 -1)
(-0.02462019958 0.4793410003 1)
(-0.02349230088 0.4835509956 1)
(-0.02349230088 0.4835509956 -1)
(-0.02165059932 0.4875000119 1)
(-0.02165059932 0.4875000119 -1)
(-0.01915110089 0.4910700023 1)
(-0.01915110089 0.4910700023 -1)
(-0.01606969908 0.4941509962 1)
(-0.01606969908 0.4941509962 -1)
(-0.01250000019 0.4966509938 1)
(-0.008550499566 0.4984920025 1)
(-0.01250000019 0.4966509938 -1)
(-0.008550499566 0.4984920025 -1)
(-0.004341199994 0.4996199906 1)
(-0.004341199994 0.4996199906 -1)
(-4.900120011e-17 0.5 1)
(-4.900120011e-17 0.5 -1)
(0.004341199994 0.4996199906 1)
(0.008550499566 0.4984920025 1)
(0.004341199994 0.4996199906 -1)
(0.008550499566 0.4984920025 -1)
(0.01250000019 0.4966509938 1)
(0.01250000019 0.4966509938 -1)
(0.01606969908 0.4941509962 1)
(0.01915110089 0.4910700023 1)
(0.01606969908 0.4941509962 -1)
(0.01915110089 0.4910700023 -1)
(0.02165059932 0.4875000119 -1)
(0.02165059932 0.4875000119 1)
(0.02349230088 0.4835509956 -1)
(0.02349230088 0.4835509956 1)
(0.02462019958 0.4793410003 1)
(0.02462019958 0.4793410003 -1)
(0.02462019958 -0.4793410003 -1)
(0.02462019958 -0.4793410003 1)
(0.02349230088 -0.4835509956 1)
(0.02349230088 -0.4835509956 -1)
(0.02165059932 -0.4875000119 1)
(0.02165059932 -0.4875000119 -1)
(0.01915110089 -0.4910700023 1)
(0.01915110089 -0.4910700023 -1)
(0.01606969908 -0.4941509962 1)
(0.01606969908 -0.4941509962 -1)
(0.01250000019 -0.4966509938 1)
(0.01250000019 -0.4966509938 -1)
(0.008550499566 -0.4984920025 1)
(0.008550499566 -0.4984920025 -1)
(0.004341199994 -0.4996199906 1)
(1.530759969e-18 -0.5 1)
(0.004341199994 -0.4996199906 -1)
(1.530759969e-18 -0.5 -1)
(-0.004341199994 -0.4996199906 1)
(-0.004341199994 -0.4996199906 -1)
(-0.008550499566 -0.4984920025 1)
(-0.008550499566 -0.4984920025 -1)
(-0.01250000019 -0.4966509938 1)
(-0.01250000019 -0.4966509938 -1)
(-0.01606969908 -0.4941509962 1)
(-0.01606969908 -0.4941509962 -1)
(-0.01915110089 -0.4910700023 1)
(-0.02165059932 -0.4875000119 1)
(-0.01915110089 -0.4910700023 -1)
(-0.02165059932 -0.4875000119 -1)
(-0.02349230088 -0.4835509956 -1)
(-0.02349230088 -0.4835509956 1)
(-0.02462019958 -0.4793410003 -1)
(-0.02462019958 -0.4793410003 1)
)

// edges

78
(
(1 2)
(3 0)
(0 1)
(2 3)
(4 5)
(6 7)
(8 4)
(7 9)
(9 10)
(11 8)
(10 12)
(13 11)
(12 14)
(15 13)
(14 16)
(17 15)
(16 18)
(18 19)
(20 17)
(21 20)
(19 22)
(23 21)
(22 24)
(25 23)
(24 26)
(26 27)
(28 25)
(29 28)
(27 30)
(31 29)
(30 32)
(32 33)
(34 31)
(35 34)
(36 35)
(33 37)
(38 36)
(37 39)
(39 40)
(41 38)
(0 41)
(40 3)
(42 1)
(2 43)
(43 44)
(45 42)
(44 46)
(47 45)
(46 48)
(49 47)
(48 50)
(51 49)
(50 52)
(53 51)
(52 54)
(55 53)
(54 56)
(56 57)
(58 55)
(59 58)
(57 60)
(61 59)
(60 62)
(63 61)
(62 64)
(65 63)
(64 66)
(67 65)
(66 68)
(68 69)
(70 67)
(71 70)
(72 71)
(69 73)
(74 72)
(73 75)
(75 6)
(5 74)
)

// concaveStart mixedStart nonFeatureStart
0 0 4
// internalStart flatStart openStart multipleStart
0 2 2 78
// normals

76
(
(-1 0 0)
(-1 0 0)
(-1 0 0)
(-1 0 0)
(-0.9961944598 0.08715846626 0)
(-0.9961944598 0.08715846626 0)
(-0.9659353553 0.2587834796 0)
(-0.9659353553 0.2587834796 0)
(-0.906286249 0.4226644472 0)
(-0.906286249 0.4226644472 0)
(-0.8191774612 0.5735401355 0)
(-0.8191774612 0.5735401355 0)
(-0.7070599728 0.7071535865 0)
(-0.7070599728 0.7071535865 0)
(-0.5736484215 0.8191016351 0)
(-0.4224912604 0.9063669979 0)
(-0.5736484215 0.8191016351 0)
(-0.4224912604 0.9063669979 0)
(-0.2588425274 0.9659195339 0)
(-0.2588425274 0.9659195339 0)
(-0.08720211476 0.99619064 0)
(-0.08720211476 0.99619064 0)
(0.08720211476 0.99619064 -0)
(0.2588425274 0.9659195339 -0)
(0.08720211476 0.99619064 0)
(0.2588425274 0.9659195339 -0)
(0.4224912604 0.9063669979 -0)
(0.4224912604 0.9063669979 0)
(0.5736484215 0.8191016351 -0)
(0.7070599728 0.7071535865 -0)
(0.5736484215 0.8191016351 0)
(0.7070599728 0.7071535865 -0)
(0.8191774612 0.5735401355 0)
(0.8191774612 0.5735401355 -0)
(0.906286249 0.4226644472 0)
(0.906286249 0.4226644472 -0)
(0.9659353553 0.2587834796 -0)
(0.9659353553 0.2587834796 -0)
(0.9961944598 0.08715846626 0)
(0.9961944598 0.08715846626 -0)
(0.9961944598 -0.08715846626 0)
(0.9961944598 -0.08715846626 0)
(0.9659353553 -0.2587834796 0)
(0.9659353553 -0.2587834796 0)
(0.906286249 -0.4226644472 0)
(0.906286249 -0.4226644472 0)
(0.8191774612 -0.5735401355 0)
(0.8191774612 -0.5735401355 0)
(0.7070599728 -0.7071535865 0)
(0.7070599728 -0.7071535865 0)
(0.5736484215 -0.8191016351 0)
(0.5736484215 -0.8191016351 0)
(0.4224912604 -0.9063669979 0)
(0.4224912604 -0.9063669979 0)
(0.2588425274 -0.9659195339 0)
(0.08720211476 -0.99619064 0)
(0.2588425274 -0.9659195339 0)
(0.08720211476 -0.99619064 0)
(-0.08720211476 -0.99619064 0)
(-0.08720211476 -0.99619064 0)
(-0.2588425274 -0.9659195339 0)
(-0.2588425274 -0.9659195339 0)
(-0.4224912604 -0.9063669979 0)
(-0.4224912604 -0.9063669979 0)
(-0.5736484215 -0.8191016351 0)
(-0.5736484215 -0.8191016351 0)
(-0.7070599728 -0.7071535865 0)
(-0.8191774612 -0.5735401355 0)
(-0.7070599728 -0.7071535865 0)
(-0.8191774612 -0.5735401355 0)
(-0.906286249 -0.4226644472 0)
(-0.906286249 -0.4226644472 0)
(-0.9659353553 -0.2587834796 0)
(-0.9659353553 -0.2587834796 0)
(-0.9961944598 -0.08715846626 0)
(-0.9961944598 -0.08715846626 0)
)

// normal volume types

76
(
0
0
0
0
0
0
0
0
0
0
0
0
0
0
0
0
0
0
0
0
0
0
0
0
0
0
0
0
0
0
0
0
0
0
0
0
0
0
0
0
0
0
0
0
0
0
0
0
0
0
0
0
0
0
0
0
0
0
0
0
0
0
0
0
0
0
0
0
0
0
0
0
0
0
0
0
)

// normalDirections

78
(
2{1}
2{1}
1(1)
1(1)
1(1)
1(1)
1(1)
1(1)
1(1)
1(1)
1(1)
1(1)
1(1)
1(1)
1(1)
1(1)
1(1)
1(1)
1(1)
1(1)
1(1)
1(1)
1(1)
1(1)
1(1)
1(1)
1(1)
1(1)
1(1)
1(1)
1(1)
1(1)
1(1)
1(1)
1(1)
1(1)
1(1)
1(1)
1(1)
1(1)
1(1)
1(1)
1(1)
1(1)
1(1)
1(1)
1(1)
1(1)
1(1)
1(1)
1(1)
1(1)
1(1)
1(1)
1(1)
1(1)
1(1)
1(1)
1(1)
1(1)
1(1)
1(1)
1(1)
1(1)
1(1)
1(1)
1(1)
1(1)
1(1)
1(1)
1(1)
1(1)
1(1)
1(1)
1(1)
1(1)
1(1)
1(1)
)

// edgeNormals

78
(
2(0 40)
2(1 39)
1(0)
1(1)
1(2)
1(3)
1(4)
1(5)
1(6)
1(7)
1(8)
1(9)
1(10)
1(11)
1(12)
1(13)
1(14)
1(15)
1(16)
1(17)
1(18)
1(19)
1(20)
1(21)
1(22)
1(23)
1(24)
1(25)
1(26)
1(27)
1(28)
1(29)
1(30)
1(31)
1(32)
1(33)
1(34)
1(35)
1(36)
1(37)
1(38)
1(39)
1(40)
1(41)
1(42)
1(43)
1(44)
1(45)
1(46)
1(47)
1(48)
1(49)
1(50)
1(51)
1(52)
1(53)
1(54)
1(55)
1(56)
1(57)
1(58)
1(59)
1(60)
1(61)
1(62)
1(63)
1(64)
1(65)
1(66)
1(67)
1(68)
1(69)
1(70)
1(71)
1(72)
1(73)
1(74)
1(75)
)

// featurePointNormals

4
(
2(1 39)
2(0 40)
2(0 40)
2(1 39)
)

// featurePointEdges

4
(
3(1 2 40)
3(0 2 42)
3(0 3 43)
3(1 3 41)
)

// regionEdges

76
(
2
3
4
5
6
7
8
9
10
11
12
13
14
15
16
17
18
19
20
21
22
23
24
25
26
27
28
29
30
31
32
33
34
35
36
37
38
39
40
41
42
43
44
45
46
47
48
49
50
51
52
53
54
55
56
57
58
59
60
61
62
63
64
65
66
67
68
69
70
71
72
73
74
75
76
77
)



// ************************************************************************* //
