/*--------------------------------*- C++ -*----------------------------------*\
| =========                 |                                                 |
| \\      /  F ield         | OpenFOAM: The Open Source CFD Toolbox           |
|  \\    /   O peration     | Version:  v1912                                 |
|   \\  /    A nd           | Website:  www.openfoam.com                      |
|    \\/     M anipulation  |                                                 |
\*---------------------------------------------------------------------------*/
FoamFile
{
    version     2.0;
    format      ascii;
    class       extendedFeatureEdgeMesh;
    location    "constant/extendedFeatureEdgeMesh";
    object      ff_geometry.extendedFeatureEdgeMesh;
}
// * * * * * * * * * * * * * * * * * * * * * * * * * * * * * * * * * * * * * //

// points

112
(
(0.0569117 0.797694 0.017)
(0.0569117 0.797694 -0.017)
(-1.02441 0.800404 0.017)
(-1.02441 0.800404 -0.017)
(-0.834705 3.30452 0.017)
(-0.798985 3.36791 0.017)
(-0.798985 3.36791 -0.017)
(-0.834705 3.30452 -0.017)
(-0.746508 3.45156 0.017)
(-0.746508 3.45156 -0.017)
(-0.703584 3.50914 0.017)
(-0.703584 3.50914 -0.017)
(-0.660646 3.55679 0.017)
(-0.660646 3.55679 -0.017)
(-0.611302 3.60022 0.017)
(-0.611302 3.60022 -0.017)
(-0.560755 3.63448 0.017)
(-0.560755 3.63448 -0.017)
(-0.487477 3.67354 0.017)
(-0.487477 3.67354 -0.017)
(-0.413284 3.70574 0.017)
(-0.413284 3.70574 -0.017)
(-0.356204 3.72385 0.017)
(-0.356204 3.72385 -0.017)
(-0.302109 3.73374 0.017)
(-0.302109 3.73374 -0.017)
(-0.250065 3.73603 0.017)
(-0.250065 3.73603 -0.017)
(-0.198826 3.73071 0.017)
(-0.198826 3.73071 -0.017)
(-0.151784 3.71823 0.017)
(-0.151784 3.71823 -0.017)
(-0.10429 3.69792 0.017)
(-0.10429 3.69792 -0.017)
(-0.0593853 3.67119 0.017)
(-0.0593853 3.67119 -0.017)
(-0.013485 3.63546 0.017)
(-0.013485 3.63546 -0.017)
(0.0324133 3.59042 0.017)
(0.0324133 3.59042 -0.017)
(0.0791059 3.53462 0.017)
(0.0791059 3.53462 -0.017)
(0.132794 3.45899 0.017)
(0.132794 3.45899 -0.017)
(0.177836 3.36841 0.017)
(0.177836 3.36841 -0.017)
(0.228133 3.25157 0.017)
(0.228133 3.25157 -0.017)
(0.270659 3.13414 0.017)
(0.270659 3.13414 -0.017)
(0.306197 3.01291 0.017)
(0.306197 3.01291 -0.017)
(0.334832 2.88523 0.017)
(0.334832 2.88523 -0.017)
(0.353189 2.77281 0.017)
(0.353189 2.77281 -0.017)
(0.368565 2.6263 0.017)
(0.368565 2.6263 -0.017)
(0.375382 2.48509 0.017)
(0.375382 2.48509 -0.017)
(0.375164 2.33432 0.017)
(0.375164 2.33432 -0.017)
(0.367693 2.17599 0.017)
(0.367693 2.17599 -0.017)
(0.35238 2.00532 0.017)
(0.35238 2.00532 -0.017)
(0.329059 1.82557 0.017)
(0.329059 1.82557 -0.017)
(0.297735 1.63831 0.017)
(0.297735 1.63831 -0.017)
(0.25335 1.4214 0.017)
(0.25335 1.4214 -0.017)
(0.205773 1.22521 0.017)
(0.205773 1.22521 -0.017)
(0.163301 1.07782 0.017)
(0.163301 1.07782 -0.017)
(0.117716 0.946136 0.017)
(0.117716 0.946136 -0.017)
(-1.04539 0.848241 0.017)
(-1.04539 0.848241 -0.017)
(-1.08056 0.943761 0.017)
(-1.08056 0.943761 -0.017)
(-1.11068 1.05132 0.017)
(-1.11068 1.05132 -0.017)
(-1.13297 1.16085 0.017)
(-1.13297 1.16085 -0.017)
(-1.14981 1.2822 0.017)
(-1.14981 1.2822 -0.017)
(-1.16138 1.42731 0.017)
(-1.16138 1.42731 -0.017)
(-1.16548 1.57697 0.017)
(-1.16548 1.57697 -0.017)
(-1.16253 1.74052 0.017)
(-1.16253 1.74052 -0.017)
(-1.15205 1.9186 0.017)
(-1.15205 1.9186 -0.017)
(-1.13198 2.12951 0.017)
(-1.13198 2.12951 -0.017)
(-1.09907 2.39283 0.017)
(-1.09907 2.39283 -0.017)
(-1.07981 2.5254 0.017)
(-1.07981 2.5254 -0.017)
(-1.04932 2.70264 0.017)
(-1.04932 2.70264 -0.017)
(-1.0222 2.82663 0.017)
(-1.0222 2.82663 -0.017)
(-0.990225 2.94228 0.017)
(-0.990225 2.94228 -0.017)
(-0.950275 3.05735 0.017)
(-0.950275 3.05735 -0.017)
(-0.898615 3.17834 0.017)
(-0.898615 3.17834 -0.017)
)

// edges

114
(
(4 5)
(6 7)
(5 8)
(9 6)
(8 10)
(11 9)
(10 12)
(13 11)
(12 14)
(15 13)
(14 16)
(17 15)
(16 18)
(19 17)
(18 20)
(21 19)
(20 22)
(23 21)
(22 24)
(25 23)
(24 26)
(27 25)
(26 28)
(29 27)
(28 30)
(31 29)
(30 32)
(33 31)
(32 34)
(35 33)
(34 36)
(37 35)
(36 38)
(39 37)
(38 40)
(41 39)
(40 42)
(43 41)
(42 44)
(45 43)
(44 46)
(47 45)
(46 48)
(49 47)
(48 50)
(51 49)
(50 52)
(53 51)
(52 54)
(55 53)
(54 56)
(57 55)
(56 58)
(59 57)
(58 60)
(61 59)
(60 62)
(63 61)
(62 64)
(65 63)
(64 66)
(67 65)
(66 68)
(69 67)
(68 70)
(71 69)
(70 72)
(73 71)
(72 74)
(75 73)
(74 76)
(77 75)
(76 0)
(0 1)
(1 77)
(2 3)
(0 2)
(3 1)
(2 78)
(79 3)
(78 80)
(81 79)
(80 82)
(83 81)
(82 84)
(85 83)
(84 86)
(87 85)
(86 88)
(89 87)
(88 90)
(91 89)
(90 92)
(93 91)
(92 94)
(95 93)
(94 96)
(97 95)
(96 98)
(99 97)
(98 100)
(101 99)
(100 102)
(103 101)
(102 104)
(105 103)
(104 106)
(107 105)
(106 108)
(109 107)
(108 110)
(111 109)
(110 4)
(7 111)
)

// concaveStart mixedStart nonFeatureStart
4 4 4
// internalStart flatStart openStart multipleStart
114 114 114 114
// normals

220
(
(-0.87121 0.49091 0)
(-0 0 1)
(-0.87121 0.49091 0)
(0 -0 -1)
(-0.847117 0.531407 0)
(0 0 1)
(-0.847117 0.531407 0)
(0 0 -1)
(-0.801742 0.59767 0)
(0 0 1)
(-0.801742 0.59767 0)
(0 0 -1)
(-0.742846 0.669463 0)
(0 0 1)
(-0.742846 0.669463 0)
(-0 0 -1)
(-0.660707 0.750644 0)
(0 0 1)
(-0.660707 0.750644 0)
(0 0 -1)
(-0.56111 0.827741 0)
(0 0 1)
(-0.56111 0.827741 0)
(0 0 -1)
(-0.470318 0.882497 0)
(0 0 1)
(-0.470318 0.882497 0)
(0 0 -1)
(-0.398138 0.917325 0)
(0 0 1)
(-0.398138 0.917325 0)
(0 0 -1)
(-0.302459 0.953162 0)
(-0 0 1)
(-0.302459 0.953162 0)
(0 0 -1)
(-0.179849 0.983694 0)
(-0 0 1)
(-0.179849 0.983694 0)
(0 0 -1)
(-0.0438993 0.999036 0)
(-0 0 1)
(-0.0438993 0.999036 0)
(0 0 -1)
(0.103292 0.994651 -0)
(0 0 1)
(0.103292 0.994651 0)
(0 0 -1)
(0.256329 0.96659 -0)
(0.256329 0.96659 0)
(0.393192 0.919456 -0)
(0 0 1)
(0.393192 0.919456 0)
(0 0 -1)
(0.511465 0.859304 -0)
(0 0 1)
(0.511465 0.859304 0)
(0 0 -1)
(0.614281 0.789087 -0)
(0 0 1)
(0.614281 0.789087 0)
(0 0 -1)
(0.70045 0.713701 -0)
(0 0 1)
(0.70045 0.713701 0)
(0 0 -1)
(0.766917 0.641746 -0)
(0 0 1)
(0.766917 0.641746 0)
(0 0 -1)
(0.815409 0.578886 -0)
(0 0 1)
(0.815409 0.578886 0)
(0 0 -1)
(0.895403 0.445257 -0)
(0 0 1)
(0.895403 0.445257 0)
(0 -0 -1)
(0.918514 0.395389 -0)
(0 0 1)
(0.918514 0.395389 0)
(0 0 -1)
(0.940249 0.340486 -0)
(0 0 1)
(0.940249 0.340486 0)
(0 0 -1)
(0.959614 0.281322 -0)
(0 0 1)
(0.959614 0.281322 0)
(-0 -0 -1)
(0.975763 0.218829 -0)
(0 0 1)
(0.975763 0.218829 0)
(0 0 -1)
(0.98693 0.161151 -0)
(0 0 1)
(0.98693 0.161151 0)
(0 0 -1)
(0.994537 0.104381 -0)
(0 0 1)
(0.994537 0.104381 0)
(-0 -0 -1)
(0.998837 0.0482191 -0)
(0 0 1)
(0.998837 0.0482191 0)
(0 0 -1)
(0.999999 -0.00144595 0)
(0 0 1)
(0.999999 -0.00144595 0)
(0 0 -1)
(0.998889 -0.0471353 0)
(0 0 1)
(0.998889 -0.0471353 0)
(0 0 -1)
(0.995999 -0.0893625 0)
(0 0 1)
(0.995999 -0.0893625 0)
(0 0 -1)
(0.991688 -0.128662 0)
(0 0 1)
(0.991688 -0.128662 0)
(0 0 -1)
(0.986296 -0.164988 0)
(0 -0 1)
(0.986296 -0.164988 0)
(0 0 -1)
(0.979702 -0.200462 0)
(0 0 1)
(0.979702 -0.200462 0)
(0 0 -1)
(0.97183 -0.235685 0)
(0 0 1)
(0.97183 -0.235685 0)
(0 0 -1)
(0.960905 -0.276877 0)
(0 0 1)
(0.960905 -0.276877 0)
(-0 0 -1)
(0.944977 -0.327136 0)
(0 0 1)
(0.944977 -0.327136 0)
(0 0 -1)
(0.925377 -0.379047 0)
(-0 0 1)
(0.925377 -0.379047 0)
(-0.00250628 -0.999997 -0)
(0 0 -1)
(-0.00250628 -0.999997 -0)
(-0.915774 -0.401693 0)
(-0 -0 1)
(-0.915774 -0.401693 0)
(0 0 -1)
(-0.938421 -0.345493 0)
(0 -0 1)
(-0.938421 -0.345493 0)
(0 0 -1)
(-0.962949 -0.269685 0)
(0 -0 1)
(-0.962949 -0.269685 0)
(-0 0 -1)
(-0.979925 -0.199365 0)
(0 0 1)
(-0.979925 -0.199365 0)
(0 0 -1)
(-0.990506 -0.137467 0)
(0 0 1)
(-0.990506 -0.137467 0)
(0 0 -1)
(-0.996837 -0.0794701 0)
(0 0 1)
(-0.996837 -0.0794701 0)
(0 0 -1)
(-0.999625 -0.0273972 0)
(0 0 1)
(-0.999625 -0.0273972 0)
(0 0 -1)
(-0.999838 0.0180035 0)
(0 0 1)
(-0.999838 0.0180035 0)
(0 -0 -1)
(-0.998271 0.0587712 0)
(0 0 1)
(-0.998271 0.0587712 0)
(0 -0 -1)
(-0.995503 0.0947278 0)
(-0 0 1)
(-0.995503 0.0947278 0)
(0 0 -1)
(-0.99228 0.124016 0)
(-0 0 1)
(-0.99228 0.124016 0)
(-0 0 -1)
(-0.989604 0.143816 0)
(-0 0 1)
(-0.989604 0.143816 0)
(0 0 -1)
(-0.985524 0.169534 0)
(-0 0 1)
(-0.985524 0.169534 0)
(0 0 -1)
(-0.976911 0.213648 0)
(-0 0 1)
(-0.976911 0.213648 0)
(0 0 -1)
(-0.963843 0.266471 0)
(0 0 1)
(-0.963843 0.266471 0)
(0 0 -1)
(-0.94469 0.327964 0)
(0 0 1)
(-0.94469 0.327964 0)
(0 0 -1)
(-0.919671 0.392691 0)
(0 0 1)
(-0.919671 0.392691 0)
(0 0 -1)
(-0.892091 0.451856 0)
(0 0 1)
(-0.892091 0.451856 0)
(0 0 -1)
)

// normal volume types

220
(
0
0
0
0
0
0
0
0
0
0
0
0
0
0
0
0
0
0
0
0
0
0
0
0
0
0
0
0
0
0
0
0
0
0
0
0
0
0
0
0
0
0
0
0
0
0
0
0
0
0
0
0
0
0
0
0
0
0
0
0
0
0
0
0
0
0
0
0
0
0
0
0
0
0
0
0
0
0
0
0
0
0
0
0
0
0
0
0
0
0
0
0
0
0
0
0
0
0
0
0
0
0
0
0
0
0
0
0
0
0
0
0
0
0
0
0
0
0
0
0
0
0
0
0
0
0
0
0
0
0
0
0
0
0
0
0
0
0
0
0
0
0
0
0
0
0
0
0
0
0
0
0
0
0
0
0
0
0
0
0
0
0
0
0
0
0
0
0
0
0
0
0
0
0
0
0
0
0
0
0
0
0
0
0
0
0
0
0
0
0
0
0
0
0
0
0
0
0
0
0
0
0
0
0
0
0
0
0
0
0
0
0
0
0
0
0
0
0
0
0
)

// normalDirections

114
(
2(1 -1)
2(1 -1)
2(1 -1)
2(1 -1)
2(1 -1)
2(1 -1)
2(1 -1)
2(1 -1)
2(1 -1)
2(1 -1)
2(1 -1)
2(1 -1)
2(1 -1)
2(1 -1)
2(1 -1)
2(1 -1)
2(1 -1)
2(1 -1)
2(1 -1)
2(1 -1)
2(1 -1)
2(1 -1)
2(1 -1)
2(1 -1)
2(1 -1)
2(1 -1)
2(1 -1)
2(1 -1)
2(1 -1)
2(1 -1)
2(1 -1)
2(1 -1)
2(1 -1)
2(1 -1)
2(1 -1)
2(1 -1)
2(1 -1)
2(1 -1)
2(1 -1)
2(1 -1)
2(1 -1)
2(1 -1)
2(1 -1)
2(1 -1)
2(1 -1)
2(1 -1)
2(1 -1)
2(1 -1)
2(1 -1)
2(1 -1)
2(1 -1)
2(1 -1)
2(1 -1)
2(1 -1)
2(1 -1)
2(1 -1)
2(1 -1)
2(1 -1)
2(1 -1)
2(1 -1)
2(1 -1)
2(1 -1)
2(1 -1)
2(1 -1)
2(1 -1)
2(1 -1)
2(1 -1)
2(1 -1)
2(1 -1)
2(1 -1)
2(1 -1)
2(1 -1)
2(1 -1)
2(1 -1)
2(1 -1)
2(1 -1)
2(1 -1)
2(1 -1)
2(1 -1)
2(1 -1)
2(1 -1)
2(1 -1)
2(1 -1)
2(1 -1)
2(1 -1)
2(1 -1)
2(1 -1)
2(1 -1)
2(1 -1)
2(1 -1)
2(1 -1)
2(1 -1)
2(1 -1)
2(1 -1)
2(1 -1)
2(1 -1)
2(1 -1)
2(1 -1)
2(1 -1)
2(1 -1)
2(1 -1)
2(1 -1)
2(1 -1)
2(1 -1)
2(1 -1)
2(1 -1)
2(1 -1)
2(1 -1)
2(1 -1)
2(1 -1)
2(1 -1)
2(1 -1)
2(1 -1)
2(1 -1)
)

// edgeNormals

114
(
2(0 1)
2(2 3)
2(4 5)
2(6 7)
2(8 9)
2(10 11)
2(12 13)
2(14 15)
2(16 17)
2(18 19)
2(20 21)
2(22 23)
2(24 25)
2(26 27)
2(28 29)
2(30 31)
2(32 33)
2(34 35)
2(36 37)
2(38 39)
2(40 41)
2(42 43)
2(44 45)
2(46 47)
2(48 45)
2(49 47)
2(50 51)
2(52 53)
2(54 55)
2(56 57)
2(58 59)
2(60 61)
2(62 63)
2(64 65)
2(66 67)
2(68 69)
2(70 71)
2(72 73)
2(74 75)
2(76 77)
2(78 79)
2(80 81)
2(82 83)
2(84 85)
2(86 87)
2(88 89)
2(90 91)
2(92 93)
2(94 95)
2(96 97)
2(98 99)
2(100 101)
2(102 103)
2(104 105)
2(106 107)
2(108 109)
2(110 111)
2(112 113)
2(114 115)
2(116 117)
2(118 119)
2(120 121)
2(122 123)
2(124 125)
2(126 127)
2(128 129)
2(130 131)
2(132 133)
2(134 135)
2(136 137)
2(138 139)
2(140 141)
2(142 143)
2(144 145)
2(144 146)
2(147 148)
2(147 149)
2(145 146)
2(148 149)
2(150 151)
2(152 153)
2(154 155)
2(156 157)
2(158 159)
2(160 161)
2(162 163)
2(164 165)
2(166 167)
2(168 169)
2(170 171)
2(172 173)
2(174 175)
2(176 177)
2(178 179)
2(180 181)
2(182 183)
2(184 185)
2(186 187)
2(188 189)
2(190 191)
2(192 193)
2(194 195)
2(196 197)
2(198 199)
2(200 201)
2(202 203)
2(204 205)
2(206 207)
2(208 209)
2(210 211)
2(212 213)
2(214 215)
2(216 217)
2(218 219)
)

// featurePointNormals

4
(
3(142 143 145)
3(144 145 146)
3(147 148 149)
3(147 148 146)
)

// featurePointEdges

4
(
3(73 76 72)
3(73 77 74)
3(75 78 76)
3(77 79 75)
)

// regionEdges
0()


// ************************************************************************* //
